STAAD PLANE
START JOB INFORMATION
ENGINEER DATE 07-Jun-16
JOB NAME centilevel with 40KN load
JOB NO 1
ENGINEER NAME rajat saini
END JOB INFORMATION
INPUT WIDTH 79
UNIT METER KN
JOINT COORDINATES
1 0 0 0; 2 5.00001 0 0;
MEMBER INCIDENCES
1 1 2;
DEFINE MATERIAL START
ISOTROPIC CONCRETE
E 2.17184e+007
POISSON 0.17
DENSITY 23.6158
ALPHA 5e-006
DAMP 0.05
TYPE CONCRETE
STRENGTH FCU 27578.9
END DEFINE MATERIAL
MEMBER PROPERTY AMERICAN
1 PRIS YD 0.5 ZD 0.3
CONSTANTS
MATERIAL CONCRETE ALL
SUPPORTS
1 FIXED
LOAD 1 LOADTYPE Live REDUCIBLE TITLE LIVE LOAD
MEMBER LOAD
1 UNI GY -40
PERFORM ANALYSIS PRINT ALL
START CONCRETE DESIGN
CODE INDIAN
DESIGN BEAM 1
END CONCRETE DESIGN
FINISH
